tools/germany_pcm_case_related/references/germany_network_transformers_clean.csv
Transformer_id,Bus0,Bus1,VoltageBus0_kV,VoltageBus1_kV,S_nom_MVA,X,SourceDataset,Notes
virtual_relation/18799873:a:0-380-220,B79,B21,380,220,1699,,transformers.csv,
virtual_relation/18799873:b:1-380-220,B94,B22,380,220,3397,,transformers.csv,
virtual_way/107153162:0-380-220,B139,B138,380,220,3397,,transformers.csv,
virtual_way/107175372:0-380-220,B49,B48,380,220,3397,,transformers.csv,
virtual_way/107175828:0-380-220,B51,B50,380,220,3397,,transformers.csv,
virtual_way/107175828:1-380-220,B53,B52,380,220,3397,,transformers.csv,
virtual_way/109505609:0-380-220,B2,B55,380,220,10189,,transformers.csv,
virtual_way/1118659219:1-380-220,B62,B61,380,220,3397,,transformers.csv,
virtual_way/1264466168:1-380-220,B130,B233,380,220,5095,,transformers.csv,
virtual_way/207800275:0-380-220,B123,B122,380,220,3397,,transformers.csv,
virtual_way/215588442:0-380-220,B125,B124,380,220,3397,,transformers.csv,
virtual_way/24479976:0-380-220,B141,B140,380,220,3397,,transformers.csv,
virtual_way/25788425:1-380-220,B157,B156,380,220,3397,,transformers.csv,
virtual_way/30419417:1-380-220,B179,B159,380,220,3397,,transformers.csv,
virtual_way/32672606:1-380-220,B11,B185,380,220,6793,,transformers.csv,
virtual_way/32950166:0-380-220,B187,B186,380,220,3397,,transformers.csv,
virtual_way/34897791:0-380-220,B129,B191,380,220,5095,,transformers.csv,
virtual_way/34942575:0-380-220,B5,B192,380,220,8491,,transformers.csv,
virtual_way/35164077:1-380-220,B194,B207,380,220,5095,,transformers.csv,
virtual_way/381950155:1-380-220,B199,B96,380,220,5095,,transformers.csv,
virtual_way/42509126:1-380-220,B214,B213,380,220,3397,,transformers.csv,
virtual_way/42920999:0-380-220,B148,B147,380,220,5095,,transformers.csv,
virtual_way/60869542:1-380-220,B232,B231,380,220,3397,,transformers.csv,
virtual_way/729102365:0-380-220,B242,B193,380,220,3397,,transformers.csv,
virtual_way/74261765:1-380-220,B241,B240,380,220,3397,,transformers.csv,
virtual_way/844126092:1-380-220,B252,B258,380,220,6793,,transformers.csv,
virtual_way/907517160:0-400-380,B259,B260,400,380,1788,,transformers.csv,
virtual_way/91655773:1-380-220,B265,B263,380,220,3397,,transformers.csv,
way/1011084707-380-220,B273,B272,380,220,3397,,transformers.csv,
way/1076001174-380-220,B281,B280,380,220,5095,,transformers.csv,
way/1086825107-380-220,B284,B283,380,220,11887,,transformers.csv,
way/1094015892-380-220,B289,B288,380,220,8491,,transformers.csv,
way/1102237380-380-220,B292,B291,380,220,1699,,transformers.csv,
way/113546939-380-220,B302,B301,380,220,5095,,transformers.csv,
way/121199242-380-220,B304,B229,380,220,5095,,transformers.csv,
way/1222597066-380-220,B306,B305,380,220,3397,,transformers.csv,
way/1223405794-380-220,B308,B307,380,220,3397,,transformers.csv,
way/1280178911-220-155,B311,B172,220,155,492,,transformers.csv,
way/1280178911-380-155,B312,B172,380,155,3397,,transformers.csv,
way/1280178911-380-220,B312,B311,380,220,3397,,transformers.csv,
way/1280347702-380-220,B314,B313,380,220,10189,,transformers.csv,
way/1282733005-380-220,B318,B317,380,220,5095,,transformers.csv,
way/1303270458-380-220,B320,B151,380,220,3397,,transformers.csv,
way/1327333163-380-220,B322,B37,380,220,6793,,transformers.csv,
way/1329675668-380-220,B80,B324,380,220,1699,,transformers.csv,
way/137602559-380-220,B328,B327,380,220,3397,,transformers.csv,
way/143903369-380-220,B331,B330,380,220,5095,,transformers.csv,
way/1443360811-380-220,B333,B332,380,220,10189,,transformers.csv,
way/1463924130-380-220,B355,B354,380,220,8491,,transformers.csv,
way/1464536985-380-220,B358,B357,380,220,3397,,transformers.csv,
way/1467276102-380-220,B18,B363,380,220,3397,,transformers.csv,
way/149987048-380-220,B370,B369,380,220,8491,,transformers.csv,
way/151967290-380-220,B375,B374,380,220,3397,,transformers.csv,
way/151967291-380-220,B74,B376,380,220,3397,,transformers.csv,
way/152018146-380-220,B378,B377,380,220,3397,,transformers.csv,
way/152261133-380-220,B382,B381,380,220,6793,,transformers.csv,
way/152403632-380-220,B384,B383,380,220,8491,,transformers.csv,
way/152924498-380-220,B200,B385,380,220,3397,,transformers.csv,
way/152973139-380-220,B387,B106,380,220,5095,,transformers.csv,
way/156673637-380-220,B391,B390,380,220,3397,,transformers.csv,
way/169244940-380-220,B405,B113,380,220,3397,,transformers.csv,
way/170123812-400-380,B9,B406,400,380,6793,,transformers.csv,
way/18629425-380-220,B410,B409,380,220,8491,,transformers.csv,
way/188276460-380-220,B411,B59,380,220,1699,,transformers.csv,
way/207248812-380-220,B418,B417,380,220,1967,,transformers.csv,
way/22720647-380-220,B422,B421,380,220,6793,,transformers.csv,
way/22761839-380-220,B424,B423,380,220,6793,,transformers.csv,
way/22765517-380-220,B426,B425,380,220,3397,,transformers.csv,
way/22766160-380-220,B428,B427,380,220,10189,,transformers.csv,
way/23022100-380-220,B433,B218,380,220,8491,,transformers.csv,
way/23084554-380-220,B435,B434,380,220,5095,,transformers.csv,
way/23117075-380-220,B437,B436,380,220,11887,,transformers.csv,
way/23284340-380-220,B441,B440,380,220,5095,,transformers.csv,
way/23380800-380-220,B443,B442,380,220,3397,,transformers.csv,
way/23641079-380-220,B447,B446,380,220,1699,,transformers.csv,
way/242756113-380-220,B463,B462,380,220,5095,,transformers.csv,
way/242756113-400-220,B28,B462,400,220,1788,,transformers.csv,
way/242756113-400-380,B28,B463,400,380,5095,,transformers.csv,
way/24462426-380-220,B471,B470,380,220,6793,,transformers.csv,
way/24478889-380-220,B473,B472,380,220,3397,,transformers.csv,
way/24479003-380-220,B262,B474,380,220,3397,,transformers.csv,
way/24667346-380-220,B479,B478,380,220,3397,,transformers.csv,
way/24705761-380-220,B482,B481,380,220,8491,,transformers.csv,
way/24799890-380-220,B491,B490,380,220,5095,,transformers.csv,
way/24839976-380-220,B494,B493,380,220,15283,,transformers.csv,
way/24921206-380-220,B497,B496,380,220,3441,,transformers.csv,
way/24976300-380-220,B499,B498,380,220,3397,,transformers.csv,
way/25306752-380-220,B504,B503,380,220,5095,,transformers.csv,
way/25786404-380-220,B511,B510,380,220,6793,,transformers.csv,
way/25943440-380-220,B512,B35,380,220,5095,,transformers.csv,
way/259561755-380-220,B513,B197,380,220,5095,,transformers.csv,
way/26245195-380-220,B516,B515,380,220,10189,,transformers.csv,
way/26472665-380-220,B522,B13,380,220,16982,,transformers.csv,
way/27149550-380-220,B531,B530,380,220,3397,,transformers.csv,
way/274630377-380-220,B534,B533,380,220,3397,,transformers.csv,
way/27739871-380-220,B540,B539,380,220,5095,,transformers.csv,
way/27919734-380-220,B60,B542,380,220,10189,,transformers.csv,
way/28956649-380-220,B554,B553,380,220,3397,,transformers.csv,
way/29077623-380-220,B557,B556,380,220,5095,,transformers.csv,
way/29420322-220-155,B563,B562,220,155,492,,transformers.csv,
way/29472852-380-220,B565,B564,380,220,1699,,transformers.csv,
way/301158539-400-380,B29,B571,400,380,3575,,transformers.csv,
way/30622610-380-220,B578,B577,380,220,8491,,transformers.csv,
way/31131320-380-220,B582,B171,380,220,5095,,transformers.csv,
way/31367940-380-220,B588,B587,380,220,5095,,transformers.csv,
way/32076853-380-220,B593,B592,380,220,5095,,transformers.csv,
way/32843531-380-220,B602,B601,380,220,6793,,transformers.csv,
way/32966636-380-220,B605,B604,380,220,1699,,transformers.csv,
way/33169401-380-220,B607,B271,380,220,6793,,transformers.csv,
way/33411203-380-220,B609,B608,380,220,5095,,transformers.csv,
way/35176751-380-220,B611,B610,380,220,6793,,transformers.csv,
way/35763480-380-220,B612,B239,380,220,5095,,transformers.csv,
way/37764852-380-220,B620,B619,380,220,1699,,transformers.csv,
way/395847307-380-220,B627,B626,380,220,6793,,transformers.csv,
way/41334805-380-220,B633,B206,380,220,5095,,transformers.csv,
way/41389594-380-220,B635,B634,380,220,6793,,transformers.csv,
way/42050342-380-220,B638,B38,380,220,3397,,transformers.csv,
way/42097854-380-220,B639,B46,380,220,3397,,transformers.csv,
way/42410916-380-220,B642,B641,380,220,13585,,transformers.csv,
way/42861703-380-220,B216,B649,380,220,3397,,transformers.csv,
way/43688805-380-220,B653,B652,380,220,6793,,transformers.csv,
way/456386244-380-220,B656,B91,380,220,8491,,transformers.csv,
way/460134233-380-220,B658,B657,380,220,5095,,transformers.csv,
way/46584363-380-220,B660,B659,380,220,1699,,transformers.csv,
way/49577401-380-220,B667,B666,380,220,3397,,transformers.csv,
way/517421342-380-220,B72,B672,380,220,1699,,transformers.csv,
way/54359256-380-220,B680,B679,380,220,5095,,transformers.csv,
way/57727004-380-220,B683,B682,380,220,5095,,transformers.csv,
way/59925390-380-220,B687,B117,380,220,6793,,transformers.csv,
way/600395952-380-220,B689,B105,380,220,5095,,transformers.csv,
way/61918154-380-220,B692,B691,380,220,8491,,transformers.csv,
way/63114179-380-220,B695,B694,380,220,3397,,transformers.csv,
way/637595524-380-220,B697,B696,380,220,3397,,transformers.csv,
way/68549340-380-220,B238,B701,380,220,3397,,transformers.csv,
way/82773910-380-220,B718,B717,380,220,3397,,transformers.csv,
way/82773910-400-220,B44,B717,400,220,1788,,transformers.csv,
way/82773910-400-380,B44,B718,400,380,3397,,transformers.csv,
way/829116805-380-220,B719,B116,380,220,6793,,transformers.csv,
way/85523877-380-220,B723,B722,380,220,5095,,transformers.csv,
way/87722999-380-220,B727,B726,380,220,1699,,transformers.csv,
way/88916034-380-220,B736,B735,380,220,15283,,transformers.csv,
way/91854336-380-220,B142,B743,380,220,5095,,transformers.csv,
way/940470389-380-220,B749,B748,380,220,3397,,transformers.csv,
way/940636813-380-220,B750,B155,380,220,1699,,transformers.csv,
way/940919943-380-150,B753,B752,380,150,5095,,transformers.csv,
way/942448206-380-220,B759,B758,380,220,10189,,transformers.csv,
way/946916743-380-220,B766,B765,380,220,8491,,transformers.csv,
way/947801636-380-220,B770,B769,380,220,16982,,transformers.csv,
way/952594482-380-220,B777,B776,380,220,3397,,transformers.csv,
way/954305865-380-220,B782,B781,380,220,6793,,transformers.csv,
way/95434457-380-220,B784,B783,380,220,1699,,transformers.csv,
way/955268863-380-220,B786,B785,380,220,6793,,transformers.csv,
way/968286361-380-220,B788,B787,380,220,3397,,transformers.csv,
way/97825259-380-220,B221,B789,380,220,6793,,transformers.csv,
way/979801144-380-220,B791,B78,380,220,3397,,transformers.csv,
